outs:
- md5: 0af23be376a9629303e1d38d053503e1
  size: 2032572
  path: Isogeometric_analysis_in_LS-DYNA.pdf
